<?xml version="1.0" encoding="UTF-8"?>

<!-- generated on 2026-06-05T11:54:22.146644+02:00 by Eclipse SUMO netconvert 1.27.0
<netconvertConfiguration xmlns:xsi="http://www.w3.org/2001/XMLSchema-instance" xsi:noNamespaceSchemaLocation="http://sumo.dlr.de/xsd/netconvertConfiguration.xsd">

    <input>
        <node-files value="sumo_network\network.nod.xml"/>
        <edge-files value="sumo_network\network.edg.xml"/>
    </input>

    <output>
        <output-file value="sumo_network\network.net.xml"/>
    </output>

    <tls_building>
        <tls.default-type value="static"/>
        <tls.min-dur value="10"/>
        <tls.max-dur value="60"/>
    </tls_building>

    <junctions>
        <no-internal-links value="false"/>
        <junctions.corner-detail value="5"/>
    </junctions>

    <report>
        <no-warnings value="true"/>
    </report>

</netconvertConfiguration>
-->

<net version="1.20" junctionCornerDetail="5" limitTurnSpeed="5.50" xmlns:xsi="http://www.w3.org/2001/XMLSchema-instance" xsi:noNamespaceSchemaLocation="http://sumo.dlr.de/xsd/net_file.xsd">

    <location netOffset="150.00,150.00" convBoundary="0.00,0.00,700.00,700.00" origBoundary="-150.00,-150.00,550.00,550.00" projParameter="!"/>

    <edge id=":A0_0" function="internal">
        <lane id=":A0_0_0" index="0" speed="6.51" length="9.03" shape="145.20,560.40 144.85,557.95 143.80,556.20 142.05,555.15 139.60,554.80"/>
    </edge>
    <edge id=":A0_1" function="internal">
        <lane id=":A0_1_0" index="0" speed="13.89" length="20.80" shape="145.20,560.40 145.20,539.60"/>
        <lane id=":A0_1_1" index="1" speed="13.89" length="20.80" shape="148.40,560.40 148.40,539.60"/>
    </edge>
    <edge id=":A0_3" function="internal">
        <lane id=":A0_3_0" index="0" speed="9.26" length="5.01" shape="148.40,560.40 149.11,555.44"/>
    </edge>
    <edge id=":A0_4" function="internal">
        <lane id=":A0_4_0" index="0" speed="3.65" length="1.44" shape="148.40,560.40 149.20,559.20"/>
    </edge>
    <edge id=":A0_20" function="internal">
        <lane id=":A0_20_0" index="0" speed="9.26" length="14.34" shape="149.11,555.44 149.15,555.15 151.40,551.40 155.15,549.15 160.40,548.40"/>
    </edge>
    <edge id=":A0_21" function="internal">
        <lane id=":A0_21_0" index="0" speed="3.65" length="3.23" shape="149.20,559.20 150.00,558.80 150.80,559.20 151.60,560.40"/>
    </edge>
    <edge id=":A0_5" function="internal">
        <lane id=":A0_5_0" index="0" speed="6.51" length="9.03" shape="160.40,554.80 157.95,555.15 156.20,556.20 155.15,557.95 154.80,560.40"/>
    </edge>
    <edge id=":A0_6" function="internal">
        <lane id=":A0_6_0" index="0" speed="13.89" length="20.80" shape="160.40,554.80 139.60,554.80"/>
        <lane id=":A0_6_1" index="1" speed="13.89" length="20.80" shape="160.40,551.60 139.60,551.60"/>
    </edge>
    <edge id=":A0_8" function="internal">
        <lane id=":A0_8_0" index="0" speed="9.26" length="5.01" shape="160.40,551.60 155.44,550.89"/>
    </edge>
    <edge id=":A0_9" function="internal">
        <lane id=":A0_9_0" index="0" speed="3.65" length="1.44" shape="160.40,551.60 159.20,550.80"/>
    </edge>
    <edge id=":A0_22" function="internal">
        <lane id=":A0_22_0" index="0" speed="9.26" length="14.34" shape="155.44,550.89 155.15,550.85 151.40,548.60 149.15,544.85 148.40,539.60"/>
    </edge>
    <edge id=":A0_23" function="internal">
        <lane id=":A0_23_0" index="0" speed="3.65" length="3.23" shape="159.20,550.80 158.80,550.00 159.20,549.20 160.40,548.40"/>
    </edge>
    <edge id=":A0_10" function="internal">
        <lane id=":A0_10_0" index="0" speed="6.51" length="9.03" shape="154.80,539.60 155.15,542.05 156.20,543.80 157.95,544.85 160.40,545.20"/>
    </edge>
    <edge id=":A0_11" function="internal">
        <lane id=":A0_11_0" index="0" speed="13.89" length="20.80" shape="154.80,539.60 154.80,560.40"/>
        <lane id=":A0_11_1" index="1" speed="13.89" length="20.80" shape="151.60,539.60 151.60,560.40"/>
    </edge>
    <edge id=":A0_13" function="internal">
        <lane id=":A0_13_0" index="0" speed="9.26" length="5.01" shape="151.60,539.60 150.89,544.56"/>
    </edge>
    <edge id=":A0_14" function="internal">
        <lane id=":A0_14_0" index="0" speed="3.65" length="1.44" shape="151.60,539.60 150.80,540.80"/>
    </edge>
    <edge id=":A0_24" function="internal">
        <lane id=":A0_24_0" index="0" speed="9.26" length="14.34" shape="150.89,544.56 150.85,544.85 148.60,548.60 144.85,550.85 139.60,551.60"/>
    </edge>
    <edge id=":A0_25" function="internal">
        <lane id=":A0_25_0" index="0" speed="3.65" length="3.23" shape="150.80,540.80 150.00,541.20 149.20,540.80 148.40,539.60"/>
    </edge>
    <edge id=":A0_15" function="internal">
        <lane id=":A0_15_0" index="0" speed="6.51" length="9.03" shape="139.60,545.20 142.05,544.85 143.80,543.80 144.85,542.05 145.20,539.60"/>
    </edge>
    <edge id=":A0_16" function="internal">
        <lane id=":A0_16_0" index="0" speed="13.89" length="20.80" shape="139.60,545.20 160.40,545.20"/>
        <lane id=":A0_16_1" index="1" speed="13.89" length="20.80" shape="139.60,548.40 160.40,548.40"/>
    </edge>
    <edge id=":A0_18" function="internal">
        <lane id=":A0_18_0" index="0" speed="9.26" length="5.01" shape="139.60,548.40 144.56,549.11"/>
    </edge>
    <edge id=":A0_19" function="internal">
        <lane id=":A0_19_0" index="0" speed="3.65" length="1.44" shape="139.60,548.40 140.80,549.20"/>
    </edge>
    <edge id=":A0_26" function="internal">
        <lane id=":A0_26_0" index="0" speed="9.26" length="14.34" shape="144.56,549.11 144.85,549.15 148.60,551.40 150.85,555.15 151.60,560.40"/>
    </edge>
    <edge id=":A0_27" function="internal">
        <lane id=":A0_27_0" index="0" speed="3.65" length="3.23" shape="140.80,549.20 141.20,550.00 140.80,550.80 139.60,551.60"/>
    </edge>
    <edge id=":A1_0" function="internal">
        <lane id=":A1_0_0" index="0" speed="6.51" length="9.03" shape="345.20,560.40 344.85,557.95 343.80,556.20 342.05,555.15 339.60,554.80"/>
    </edge>
    <edge id=":A1_1" function="internal">
        <lane id=":A1_1_0" index="0" speed="13.89" length="20.80" shape="345.20,560.40 345.20,539.60"/>
        <lane id=":A1_1_1" index="1" speed="13.89" length="20.80" shape="348.40,560.40 348.40,539.60"/>
    </edge>
    <edge id=":A1_3" function="internal">
        <lane id=":A1_3_0" index="0" speed="9.26" length="5.01" shape="348.40,560.40 349.11,555.44"/>
    </edge>
    <edge id=":A1_4" function="internal">
        <lane id=":A1_4_0" index="0" speed="3.65" length="1.44" shape="348.40,560.40 349.20,559.20"/>
    </edge>
    <edge id=":A1_20" function="internal">
        <lane id=":A1_20_0" index="0" speed="9.26" length="14.34" shape="349.11,555.44 349.15,555.15 351.40,551.40 355.15,549.15 360.40,548.40"/>
    </edge>
    <edge id=":A1_21" function="internal">
        <lane id=":A1_21_0" index="0" speed="3.65" length="3.23" shape="349.20,559.20 350.00,558.80 350.80,559.20 351.60,560.40"/>
    </edge>
    <edge id=":A1_5" function="internal">
        <lane id=":A1_5_0" index="0" speed="6.51" length="9.03" shape="360.40,554.80 357.95,555.15 356.20,556.20 355.15,557.95 354.80,560.40"/>
    </edge>
    <edge id=":A1_6" function="internal">
        <lane id=":A1_6_0" index="0" speed="13.89" length="20.80" shape="360.40,554.80 339.60,554.80"/>
        <lane id=":A1_6_1" index="1" speed="13.89" length="20.80" shape="360.40,551.60 339.60,551.60"/>
    </edge>
    <edge id=":A1_8" function="internal">
        <lane id=":A1_8_0" index="0" speed="9.26" length="5.01" shape="360.40,551.60 355.44,550.89"/>
    </edge>
    <edge id=":A1_9" function="internal">
        <lane id=":A1_9_0" index="0" speed="3.65" length="1.44" shape="360.40,551.60 359.20,550.80"/>
    </edge>
    <edge id=":A1_22" function="internal">
        <lane id=":A1_22_0" index="0" speed="9.26" length="14.34" shape="355.44,550.89 355.15,550.85 351.40,548.60 349.15,544.85 348.40,539.60"/>
    </edge>
    <edge id=":A1_23" function="internal">
        <lane id=":A1_23_0" index="0" speed="3.65" length="3.23" shape="359.20,550.80 358.80,550.00 359.20,549.20 360.40,548.40"/>
    </edge>
    <edge id=":A1_10" function="internal">
        <lane id=":A1_10_0" index="0" speed="6.51" length="9.03" shape="354.80,539.60 355.15,542.05 356.20,543.80 357.95,544.85 360.40,545.20"/>
    </edge>
    <edge id=":A1_11" function="internal">
        <lane id=":A1_11_0" index="0" speed="13.89" length="20.80" shape="354.80,539.60 354.80,560.40"/>
        <lane id=":A1_11_1" index="1" speed="13.89" length="20.80" shape="351.60,539.60 351.60,560.40"/>
    </edge>
    <edge id=":A1_13" function="internal">
        <lane id=":A1_13_0" index="0" speed="9.26" length="5.01" shape="351.60,539.60 350.89,544.56"/>
    </edge>
    <edge id=":A1_14" function="internal">
        <lane id=":A1_14_0" index="0" speed="3.65" length="1.44" shape="351.60,539.60 350.80,540.80"/>
    </edge>
    <edge id=":A1_24" function="internal">
        <lane id=":A1_24_0" index="0" speed="9.26" length="14.34" shape="350.89,544.56 350.85,544.85 348.60,548.60 344.85,550.85 339.60,551.60"/>
    </edge>
    <edge id=":A1_25" function="internal">
        <lane id=":A1_25_0" index="0" speed="3.65" length="3.23" shape="350.80,540.80 350.00,541.20 349.20,540.80 348.40,539.60"/>
    </edge>
    <edge id=":A1_15" function="internal">
        <lane id=":A1_15_0" index="0" speed="6.51" length="9.03" shape="339.60,545.20 342.05,544.85 343.80,543.80 344.85,542.05 345.20,539.60"/>
    </edge>
    <edge id=":A1_16" function="internal">
        <lane id=":A1_16_0" index="0" speed="13.89" length="20.80" shape="339.60,545.20 360.40,545.20"/>
        <lane id=":A1_16_1" index="1" speed="13.89" length="20.80" shape="339.60,548.40 360.40,548.40"/>
    </edge>
    <edge id=":A1_18" function="internal">
        <lane id=":A1_18_0" index="0" speed="9.26" length="5.01" shape="339.60,548.40 344.56,549.11"/>
    </edge>
    <edge id=":A1_19" function="internal">
        <lane id=":A1_19_0" index="0" speed="3.65" length="1.44" shape="339.60,548.40 340.80,549.20"/>
    </edge>
    <edge id=":A1_26" function="internal">
        <lane id=":A1_26_0" index="0" speed="9.26" length="14.34" shape="344.56,549.11 344.85,549.15 348.60,551.40 350.85,555.15 351.60,560.40"/>
    </edge>
    <edge id=":A1_27" function="internal">
        <lane id=":A1_27_0" index="0" speed="3.65" length="3.23" shape="340.80,549.20 341.20,550.00 340.80,550.80 339.60,551.60"/>
    </edge>
    <edge id=":A2_0" function="internal">
        <lane id=":A2_0_0" index="0" speed="6.51" length="9.03" shape="545.20,560.40 544.85,557.95 543.80,556.20 542.05,555.15 539.60,554.80"/>
    </edge>
    <edge id=":A2_1" function="internal">
        <lane id=":A2_1_0" index="0" speed="13.89" length="20.80" shape="545.20,560.40 545.20,539.60"/>
        <lane id=":A2_1_1" index="1" speed="13.89" length="20.80" shape="548.40,560.40 548.40,539.60"/>
    </edge>
    <edge id=":A2_3" function="internal">
        <lane id=":A2_3_0" index="0" speed="9.26" length="5.01" shape="548.40,560.40 549.11,555.44"/>
    </edge>
    <edge id=":A2_4" function="internal">
        <lane id=":A2_4_0" index="0" speed="3.65" length="1.44" shape="548.40,560.40 549.20,559.20"/>
    </edge>
    <edge id=":A2_20" function="internal">
        <lane id=":A2_20_0" index="0" speed="9.26" length="14.34" shape="549.11,555.44 549.15,555.15 551.40,551.40 555.15,549.15 560.40,548.40"/>
    </edge>
    <edge id=":A2_21" function="internal">
        <lane id=":A2_21_0" index="0" speed="3.65" length="3.23" shape="549.20,559.20 550.00,558.80 550.80,559.20 551.60,560.40"/>
    </edge>
    <edge id=":A2_5" function="internal">
        <lane id=":A2_5_0" index="0" speed="6.51" length="9.03" shape="560.40,554.80 557.95,555.15 556.20,556.20 555.15,557.95 554.80,560.40"/>
    </edge>
    <edge id=":A2_6" function="internal">
        <lane id=":A2_6_0" index="0" speed="13.89" length="20.80" shape="560.40,554.80 539.60,554.80"/>
        <lane id=":A2_6_1" index="1" speed="13.89" length="20.80" shape="560.40,551.60 539.60,551.60"/>
    </edge>
    <edge id=":A2_8" function="internal">
        <lane id=":A2_8_0" index="0" speed="9.26" length="5.01" shape="560.40,551.60 555.44,550.89"/>
    </edge>
    <edge id=":A2_9" function="internal">
        <lane id=":A2_9_0" index="0" speed="3.65" length="1.44" shape="560.40,551.60 559.20,550.80"/>
    </edge>
    <edge id=":A2_22" function="internal">
        <lane id=":A2_22_0" index="0" speed="9.26" length="14.34" shape="555.44,550.89 555.15,550.85 551.40,548.60 549.15,544.85 548.40,539.60"/>
    </edge>
    <edge id=":A2_23" function="internal">
        <lane id=":A2_23_0" index="0" speed="3.65" length="3.23" shape="559.20,550.80 558.80,550.00 559.20,549.20 560.40,548.40"/>
    </edge>
    <edge id=":A2_10" function="internal">
        <lane id=":A2_10_0" index="0" speed="6.51" length="9.03" shape="554.80,539.60 555.15,542.05 556.20,543.80 557.95,544.85 560.40,545.20"/>
    </edge>
    <edge id=":A2_11" function="internal">
        <lane id=":A2_11_0" index="0" speed="13.89" length="20.80" shape="554.80,539.60 554.80,560.40"/>
        <lane id=":A2_11_1" index="1" speed="13.89" length="20.80" shape="551.60,539.60 551.60,560.40"/>
    </edge>
    <edge id=":A2_13" function="internal">
        <lane id=":A2_13_0" index="0" speed="9.26" length="5.01" shape="551.60,539.60 550.89,544.56"/>
    </edge>
    <edge id=":A2_14" function="internal">
        <lane id=":A2_14_0" index="0" speed="3.65" length="1.44" shape="551.60,539.60 550.80,540.80"/>
    </edge>
    <edge id=":A2_24" function="internal">
        <lane id=":A2_24_0" index="0" speed="9.26" length="14.34" shape="550.89,544.56 550.85,544.85 548.60,548.60 544.85,550.85 539.60,551.60"/>
    </edge>
    <edge id=":A2_25" function="internal">
        <lane id=":A2_25_0" index="0" speed="3.65" length="3.23" shape="550.80,540.80 550.00,541.20 549.20,540.80 548.40,539.60"/>
    </edge>
    <edge id=":A2_15" function="internal">
        <lane id=":A2_15_0" index="0" speed="6.51" length="9.03" shape="539.60,545.20 542.05,544.85 543.80,543.80 544.85,542.05 545.20,539.60"/>
    </edge>
    <edge id=":A2_16" function="internal">
        <lane id=":A2_16_0" index="0" speed="13.89" length="20.80" shape="539.60,545.20 560.40,545.20"/>
        <lane id=":A2_16_1" index="1" speed="13.89" length="20.80" shape="539.60,548.40 560.40,548.40"/>
    </edge>
    <edge id=":A2_18" function="internal">
        <lane id=":A2_18_0" index="0" speed="9.26" length="5.01" shape="539.60,548.40 544.56,549.11"/>
    </edge>
    <edge id=":A2_19" function="internal">
        <lane id=":A2_19_0" index="0" speed="3.65" length="1.44" shape="539.60,548.40 540.80,549.20"/>
    </edge>
    <edge id=":A2_26" function="internal">
        <lane id=":A2_26_0" index="0" speed="9.26" length="14.34" shape="544.56,549.11 544.85,549.15 548.60,551.40 550.85,555.15 551.60,560.40"/>
    </edge>
    <edge id=":A2_27" function="internal">
        <lane id=":A2_27_0" index="0" speed="3.65" length="3.23" shape="540.80,549.20 541.20,550.00 540.80,550.80 539.60,551.60"/>
    </edge>
    <edge id=":B0_0" function="internal">
        <lane id=":B0_0_0" index="0" speed="6.51" length="9.03" shape="145.20,360.40 144.85,357.95 143.80,356.20 142.05,355.15 139.60,354.80"/>
    </edge>
    <edge id=":B0_1" function="internal">
        <lane id=":B0_1_0" index="0" speed="13.89" length="20.80" shape="145.20,360.40 145.20,339.60"/>
        <lane id=":B0_1_1" index="1" speed="13.89" length="20.80" shape="148.40,360.40 148.40,339.60"/>
    </edge>
    <edge id=":B0_3" function="internal">
        <lane id=":B0_3_0" index="0" speed="9.26" length="5.01" shape="148.40,360.40 149.11,355.44"/>
    </edge>
    <edge id=":B0_4" function="internal">
        <lane id=":B0_4_0" index="0" speed="3.65" length="1.44" shape="148.40,360.40 149.20,359.20"/>
    </edge>
    <edge id=":B0_20" function="internal">
        <lane id=":B0_20_0" index="0" speed="9.26" length="14.34" shape="149.11,355.44 149.15,355.15 151.40,351.40 155.15,349.15 160.40,348.40"/>
    </edge>
    <edge id=":B0_21" function="internal">
        <lane id=":B0_21_0" index="0" speed="3.65" length="3.23" shape="149.20,359.20 150.00,358.80 150.80,359.20 151.60,360.40"/>
    </edge>
    <edge id=":B0_5" function="internal">
        <lane id=":B0_5_0" index="0" speed="6.51" length="9.03" shape="160.40,354.80 157.95,355.15 156.20,356.20 155.15,357.95 154.80,360.40"/>
    </edge>
    <edge id=":B0_6" function="internal">
        <lane id=":B0_6_0" index="0" speed="13.89" length="20.80" shape="160.40,354.80 139.60,354.80"/>
        <lane id=":B0_6_1" index="1" speed="13.89" length="20.80" shape="160.40,351.60 139.60,351.60"/>
    </edge>
    <edge id=":B0_8" function="internal">
        <lane id=":B0_8_0" index="0" speed="9.26" length="5.01" shape="160.40,351.60 155.44,350.89"/>
    </edge>
    <edge id=":B0_9" function="internal">
        <lane id=":B0_9_0" index="0" speed="3.65" length="1.44" shape="160.40,351.60 159.20,350.80"/>
    </edge>
    <edge id=":B0_22" function="internal">
        <lane id=":B0_22_0" index="0" speed="9.26" length="14.34" shape="155.44,350.89 155.15,350.85 151.40,348.60 149.15,344.85 148.40,339.60"/>
    </edge>
    <edge id=":B0_23" function="internal">
        <lane id=":B0_23_0" index="0" speed="3.65" length="3.23" shape="159.20,350.80 158.80,350.00 159.20,349.20 160.40,348.40"/>
    </edge>
    <edge id=":B0_10" function="internal">
        <lane id=":B0_10_0" index="0" speed="6.51" length="9.03" shape="154.80,339.60 155.15,342.05 156.20,343.80 157.95,344.85 160.40,345.20"/>
    </edge>
    <edge id=":B0_11" function="internal">
        <lane id=":B0_11_0" index="0" speed="13.89" length="20.80" shape="154.80,339.60 154.80,360.40"/>
        <lane id=":B0_11_1" index="1" speed="13.89" length="20.80" shape="151.60,339.60 151.60,360.40"/>
    </edge>
    <edge id=":B0_13" function="internal">
        <lane id=":B0_13_0" index="0" speed="9.26" length="5.01" shape="151.60,339.60 150.89,344.56"/>
    </edge>
    <edge id=":B0_14" function="internal">
        <lane id=":B0_14_0" index="0" speed="3.65" length="1.44" shape="151.60,339.60 150.80,340.80"/>
    </edge>
    <edge id=":B0_24" function="internal">
        <lane id=":B0_24_0" index="0" speed="9.26" length="14.34" shape="150.89,344.56 150.85,344.85 148.60,348.60 144.85,350.85 139.60,351.60"/>
    </edge>
    <edge id=":B0_25" function="internal">
        <lane id=":B0_25_0" index="0" speed="3.65" length="3.23" shape="150.80,340.80 150.00,341.20 149.20,340.80 148.40,339.60"/>
    </edge>
    <edge id=":B0_15" function="internal">
        <lane id=":B0_15_0" index="0" speed="6.51" length="9.03" shape="139.60,345.20 142.05,344.85 143.80,343.80 144.85,342.05 145.20,339.60"/>
    </edge>
    <edge id=":B0_16" function="internal">
        <lane id=":B0_16_0" index="0" speed="13.89" length="20.80" shape="139.60,345.20 160.40,345.20"/>
        <lane id=":B0_16_1" index="1" speed="13.89" length="20.80" shape="139.60,348.40 160.40,348.40"/>
    </edge>
    <edge id=":B0_18" function="internal">
        <lane id=":B0_18_0" index="0" speed="9.26" length="5.01" shape="139.60,348.40 144.56,349.11"/>
    </edge>
    <edge id=":B0_19" function="internal">
        <lane id=":B0_19_0" index="0" speed="3.65" length="1.44" shape="139.60,348.40 140.80,349.20"/>
    </edge>
    <edge id=":B0_26" function="internal">
        <lane id=":B0_26_0" index="0" speed="9.26" length="14.34" shape="144.56,349.11 144.85,349.15 148.60,351.40 150.85,355.15 151.60,360.40"/>
    </edge>
    <edge id=":B0_27" function="internal">
        <lane id=":B0_27_0" index="0" speed="3.65" length="3.23" shape="140.80,349.20 141.20,350.00 140.80,350.80 139.60,351.60"/>
    </edge>
    <edge id=":B1_0" function="internal">
        <lane id=":B1_0_0" index="0" speed="6.51" length="9.03" shape="345.20,360.40 344.85,357.95 343.80,356.20 342.05,355.15 339.60,354.80"/>
    </edge>
    <edge id=":B1_1" function="internal">
        <lane id=":B1_1_0" index="0" speed="13.89" length="20.80" shape="345.20,360.40 345.20,339.60"/>
        <lane id=":B1_1_1" index="1" speed="13.89" length="20.80" shape="348.40,360.40 348.40,339.60"/>
    </edge>
    <edge id=":B1_3" function="internal">
        <lane id=":B1_3_0" index="0" speed="9.26" length="5.01" shape="348.40,360.40 349.11,355.44"/>
    </edge>
    <edge id=":B1_4" function="internal">
        <lane id=":B1_4_0" index="0" speed="3.65" length="1.44" shape="348.40,360.40 349.20,359.20"/>
    </edge>
    <edge id=":B1_20" function="internal">
        <lane id=":B1_20_0" index="0" speed="9.26" length="14.34" shape="349.11,355.44 349.15,355.15 351.40,351.40 355.15,349.15 360.40,348.40"/>
    </edge>
    <edge id=":B1_21" function="internal">
        <lane id=":B1_21_0" index="0" speed="3.65" length="3.23" shape="349.20,359.20 350.00,358.80 350.80,359.20 351.60,360.40"/>
    </edge>
    <edge id=":B1_5" function="internal">
        <lane id=":B1_5_0" index="0" speed="6.51" length="9.03" shape="360.40,354.80 357.95,355.15 356.20,356.20 355.15,357.95 354.80,360.40"/>
    </edge>
    <edge id=":B1_6" function="internal">
        <lane id=":B1_6_0" index="0" speed="13.89" length="20.80" shape="360.40,354.80 339.60,354.80"/>
        <lane id=":B1_6_1" index="1" speed="13.89" length="20.80" shape="360.40,351.60 339.60,351.60"/>
    </edge>
    <edge id=":B1_8" function="internal">
        <lane id=":B1_8_0" index="0" speed="9.26" length="5.01" shape="360.40,351.60 355.44,350.89"/>
    </edge>
    <edge id=":B1_9" function="internal">
        <lane id=":B1_9_0" index="0" speed="3.65" length="1.44" shape="360.40,351.60 359.20,350.80"/>
    </edge>
    <edge id=":B1_22" function="internal">
        <lane id=":B1_22_0" index="0" speed="9.26" length="14.34" shape="355.44,350.89 355.15,350.85 351.40,348.60 349.15,344.85 348.40,339.60"/>
    </edge>
    <edge id=":B1_23" function="internal">
        <lane id=":B1_23_0" index="0" speed="3.65" length="3.23" shape="359.20,350.80 358.80,350.00 359.20,349.20 360.40,348.40"/>
    </edge>
    <edge id=":B1_10" function="internal">
        <lane id=":B1_10_0" index="0" speed="6.51" length="9.03" shape="354.80,339.60 355.15,342.05 356.20,343.80 357.95,344.85 360.40,345.20"/>
    </edge>
    <edge id=":B1_11" function="internal">
        <lane id=":B1_11_0" index="0" speed="13.89" length="20.80" shape="354.80,339.60 354.80,360.40"/>
        <lane id=":B1_11_1" index="1" speed="13.89" length="20.80" shape="351.60,339.60 351.60,360.40"/>
    </edge>
    <edge id=":B1_13" function="internal">
        <lane id=":B1_13_0" index="0" speed="9.26" length="5.01" shape="351.60,339.60 350.89,344.56"/>
    </edge>
    <edge id=":B1_14" function="internal">
        <lane id=":B1_14_0" index="0" speed="3.65" length="1.44" shape="351.60,339.60 350.80,340.80"/>
    </edge>
    <edge id=":B1_24" function="internal">
        <lane id=":B1_24_0" index="0" speed="9.26" length="14.34" shape="350.89,344.56 350.85,344.85 348.60,348.60 344.85,350.85 339.60,351.60"/>
    </edge>
    <edge id=":B1_25" function="internal">
        <lane id=":B1_25_0" index="0" speed="3.65" length="3.23" shape="350.80,340.80 350.00,341.20 349.20,340.80 348.40,339.60"/>
    </edge>
    <edge id=":B1_15" function="internal">
        <lane id=":B1_15_0" index="0" speed="6.51" length="9.03" shape="339.60,345.20 342.05,344.85 343.80,343.80 344.85,342.05 345.20,339.60"/>
    </edge>
    <edge id=":B1_16" function="internal">
        <lane id=":B1_16_0" index="0" speed="13.89" length="20.80" shape="339.60,345.20 360.40,345.20"/>
        <lane id=":B1_16_1" index="1" speed="13.89" length="20.80" shape="339.60,348.40 360.40,348.40"/>
    </edge>
    <edge id=":B1_18" function="internal">
        <lane id=":B1_18_0" index="0" speed="9.26" length="5.01" shape="339.60,348.40 344.56,349.11"/>
    </edge>
    <edge id=":B1_19" function="internal">
        <lane id=":B1_19_0" index="0" speed="3.65" length="1.44" shape="339.60,348.40 340.80,349.20"/>
    </edge>
    <edge id=":B1_26" function="internal">
        <lane id=":B1_26_0" index="0" speed="9.26" length="14.34" shape="344.56,349.11 344.85,349.15 348.60,351.40 350.85,355.15 351.60,360.40"/>
    </edge>
    <edge id=":B1_27" function="internal">
        <lane id=":B1_27_0" index="0" speed="3.65" length="3.23" shape="340.80,349.20 341.20,350.00 340.80,350.80 339.60,351.60"/>
    </edge>
    <edge id=":B2_0" function="internal">
        <lane id=":B2_0_0" index="0" speed="6.51" length="9.03" shape="545.20,360.40 544.85,357.95 543.80,356.20 542.05,355.15 539.60,354.80"/>
    </edge>
    <edge id=":B2_1" function="internal">
        <lane id=":B2_1_0" index="0" speed="13.89" length="20.80" shape="545.20,360.40 545.20,339.60"/>
        <lane id=":B2_1_1" index="1" speed="13.89" length="20.80" shape="548.40,360.40 548.40,339.60"/>
    </edge>
    <edge id=":B2_3" function="internal">
        <lane id=":B2_3_0" index="0" speed="9.26" length="5.01" shape="548.40,360.40 549.11,355.44"/>
    </edge>
    <edge id=":B2_4" function="internal">
        <lane id=":B2_4_0" index="0" speed="3.65" length="1.44" shape="548.40,360.40 549.20,359.20"/>
    </edge>
    <edge id=":B2_20" function="internal">
        <lane id=":B2_20_0" index="0" speed="9.26" length="14.34" shape="549.11,355.44 549.15,355.15 551.40,351.40 555.15,349.15 560.40,348.40"/>
    </edge>
    <edge id=":B2_21" function="internal">
        <lane id=":B2_21_0" index="0" speed="3.65" length="3.23" shape="549.20,359.20 550.00,358.80 550.80,359.20 551.60,360.40"/>
    </edge>
    <edge id=":B2_5" function="internal">
        <lane id=":B2_5_0" index="0" speed="6.51" length="9.03" shape="560.40,354.80 557.95,355.15 556.20,356.20 555.15,357.95 554.80,360.40"/>
    </edge>
    <edge id=":B2_6" function="internal">
        <lane id=":B2_6_0" index="0" speed="13.89" length="20.80" shape="560.40,354.80 539.60,354.80"/>
        <lane id=":B2_6_1" index="1" speed="13.89" length="20.80" shape="560.40,351.60 539.60,351.60"/>
    </edge>
    <edge id=":B2_8" function="internal">
        <lane id=":B2_8_0" index="0" speed="9.26" length="5.01" shape="560.40,351.60 555.44,350.89"/>
    </edge>
    <edge id=":B2_9" function="internal">
        <lane id=":B2_9_0" index="0" speed="3.65" length="1.44" shape="560.40,351.60 559.20,350.80"/>
    </edge>
    <edge id=":B2_22" function="internal">
        <lane id=":B2_22_0" index="0" speed="9.26" length="14.34" shape="555.44,350.89 555.15,350.85 551.40,348.60 549.15,344.85 548.40,339.60"/>
    </edge>
    <edge id=":B2_23" function="internal">
        <lane id=":B2_23_0" index="0" speed="3.65" length="3.23" shape="559.20,350.80 558.80,350.00 559.20,349.20 560.40,348.40"/>
    </edge>
    <edge id=":B2_10" function="internal">
        <lane id=":B2_10_0" index="0" speed="6.51" length="9.03" shape="554.80,339.60 555.15,342.05 556.20,343.80 557.95,344.85 560.40,345.20"/>
    </edge>
    <edge id=":B2_11" function="internal">
        <lane id=":B2_11_0" index="0" speed="13.89" length="20.80" shape="554.80,339.60 554.80,360.40"/>
        <lane id=":B2_11_1" index="1" speed="13.89" length="20.80" shape="551.60,339.60 551.60,360.40"/>
    </edge>
    <edge id=":B2_13" function="internal">
        <lane id=":B2_13_0" index="0" speed="9.26" length="5.01" shape="551.60,339.60 550.89,344.56"/>
    </edge>
    <edge id=":B2_14" function="internal">
        <lane id=":B2_14_0" index="0" speed="3.65" length="1.44" shape="551.60,339.60 550.80,340.80"/>
    </edge>
    <edge id=":B2_24" function="internal">
        <lane id=":B2_24_0" index="0" speed="9.26" length="14.34" shape="550.89,344.56 550.85,344.85 548.60,348.60 544.85,350.85 539.60,351.60"/>
    </edge>
    <edge id=":B2_25" function="internal">
        <lane id=":B2_25_0" index="0" speed="3.65" length="3.23" shape="550.80,340.80 550.00,341.20 549.20,340.80 548.40,339.60"/>
    </edge>
    <edge id=":B2_15" function="internal">
        <lane id=":B2_15_0" index="0" speed="6.51" length="9.03" shape="539.60,345.20 542.05,344.85 543.80,343.80 544.85,342.05 545.20,339.60"/>
    </edge>
    <edge id=":B2_16" function="internal">
        <lane id=":B2_16_0" index="0" speed="13.89" length="20.80" shape="539.60,345.20 560.40,345.20"/>
        <lane id=":B2_16_1" index="1" speed="13.89" length="20.80" shape="539.60,348.40 560.40,348.40"/>
    </edge>
    <edge id=":B2_18" function="internal">
        <lane id=":B2_18_0" index="0" speed="9.26" length="5.01" shape="539.60,348.40 544.56,349.11"/>
    </edge>
    <edge id=":B2_19" function="internal">
        <lane id=":B2_19_0" index="0" speed="3.65" length="1.44" shape="539.60,348.40 540.80,349.20"/>
    </edge>
    <edge id=":B2_26" function="internal">
        <lane id=":B2_26_0" index="0" speed="9.26" length="14.34" shape="544.56,349.11 544.85,349.15 548.60,351.40 550.85,355.15 551.60,360.40"/>
    </edge>
    <edge id=":B2_27" function="internal">
        <lane id=":B2_27_0" index="0" speed="3.65" length="3.23" shape="540.80,349.20 541.20,350.00 540.80,350.80 539.60,351.60"/>
    </edge>
    <edge id=":C0_0" function="internal">
        <lane id=":C0_0_0" index="0" speed="6.51" length="9.03" shape="145.20,160.40 144.85,157.95 143.80,156.20 142.05,155.15 139.60,154.80"/>
    </edge>
    <edge id=":C0_1" function="internal">
        <lane id=":C0_1_0" index="0" speed="13.89" length="20.80" shape="145.20,160.40 145.20,139.60"/>
        <lane id=":C0_1_1" index="1" speed="13.89" length="20.80" shape="148.40,160.40 148.40,139.60"/>
    </edge>
    <edge id=":C0_3" function="internal">
        <lane id=":C0_3_0" index="0" speed="9.26" length="5.01" shape="148.40,160.40 149.11,155.44"/>
    </edge>
    <edge id=":C0_4" function="internal">
        <lane id=":C0_4_0" index="0" speed="3.65" length="1.44" shape="148.40,160.40 149.20,159.20"/>
    </edge>
    <edge id=":C0_20" function="internal">