<?xml version="1.0" encoding="UTF-8"?>
<routes>
    <vType id="car" accel="2.6" decel="4.5" sigma="0.5" length="5.0" maxSpeed="13.89" color="0.3,0.6,1.0"/>
    <vType id="truck" accel="1.5" decel="3.5" sigma="0.4" length="8.0" maxSpeed="10.0" color="0.8,0.5,0.2"/>
    <vType id="bus" accel="1.2" decel="3.0" sigma="0.3" length="12.0" maxSpeed="9.0" color="0.2,0.8,0.4"/>
    <flow id="flow_0" type="car" from="in_right_B2" to="out_top_A1" begin="0" end="900" vehsPerHour="606" departLane="best" departSpeed="speedLimit"/>
    <flow id="flow_1" type="truck" from="in_right_B2" to="out_top_A1" begin="0" end="900" vehsPerHour="90" departLane="best" departSpeed="speedLimit"/>
    <flow id="flow_2" type="car" from="in_right_B2" to="out_top_A1" begin="900" end="2700" vehsPerHour="212" departLane="best" departSpeed="speedLimit"/>
    <flow id="flow_3" type="truck" from="in_right_B2" to="out_top_A1" begin="900" end="2700" vehsPerHour="30" departLane="best" departSpeed="speedLimit"/>
    <flow id="flow_4" type="car" from="in_right_B2" to="out_top_A1" begin="2700" end="3600" vehsPerHour="545" departLane="best" departSpeed="speedLimit"/>
    <flow id="flow_5" type="truck" from="in_right_B2" to="out_top_A1" begin="2700" end="3600" vehsPerHour="60" departLane="best" departSpeed="speedLimit"/>
    <flow id="flow_6" type="bus" from="in_right_B2" to="out_top_A1" begin="0" end="3600" vehsPerHour="15" departLane="best" departSpeed="speedLimit"/>
    <flow id="flow_7" type="car" from="in_right_C2" to="out_bot_C1" begin="0" end="900" vehsPerHour="662" departLane="best" departSpeed="speedLimit"/>
    <flow id="flow_8" type="truck" from="in_right_C2" to="out_bot_C1" begin="0" end="900" vehsPerHour="99" departLane="best" departSpeed="speedLimit"/>
    <flow id="flow_9" type="car" from="in_right_C2" to="out_bot_C1" begin="900" end="2700" vehsPerHour="231" departLane="best" departSpeed="speedLimit"/>
    <flow id="flow_10" type="truck" from="in_right_C2" to="out_bot_C1" begin="900" end="2700" vehsPerHour="33" departLane="best" departSpeed="speedLimit"/>
    <flow id="flow_11" type="car" from="in_right_C2" to="out_bot_C1" begin="2700" end="3600" vehsPerHour="595" departLane="best" departSpeed="speedLimit"/>
    <flow id="flow_12" type="truck" from="in_right_C2" to="out_bot_C1" begin="2700" end="3600" vehsPerHour="66" departLane="best" departSpeed="speedLimit"/>
    <flow id="flow_13" type="bus" from="in_right_C2" to="out_bot_C1" begin="0" end="3600" vehsPerHour="16" departLane="best" departSpeed="speedLimit"/>
    <flow id="flow_14" type="car" from="in_bot_C0" to="out_top_A2" begin="0" end="900" vehsPerHour="788" departLane="best" departSpeed="speedLimit"/>
    <flow id="flow_15" type="truck" from="in_bot_C0" to="out_top_A2" begin="0" end="900" vehsPerHour="118" departLane="best" departSpeed="speedLimit"/>
    <flow id="flow_16" type="car" from="in_bot_C0" to="out_top_A2" begin="900" end="2700" vehsPerHour="275" departLane="best" departSpeed="speedLimit"/>
    <flow id="flow_17" type="truck" from="in_bot_C0" to="out_top_A2" begin="900" end="2700" vehsPerHour="39" departLane="best" departSpeed="speedLimit"/>
    <flow id="flow_18" type="car" from="in_bot_C0" to="out_top_A2" begin="2700" end="3600" vehsPerHour="709" departLane="best" departSpeed="speedLimit"/>
    <flow id="flow_19" type="truck" from="in_bot_C0" to="out_top_A2" begin="2700" end="3600" vehsPerHour="78" departLane="best" departSpeed="speedLimit"/>
    <flow id="flow_20" type="bus" from="in_bot_C0" to="out_top_A2" begin="0" end="3600" vehsPerHour="19" departLane="best" departSpeed="speedLimit"/>
    <flow id="flow_21" type="car" from="in_top_A1" to="out_right_B2" begin="0" end="900" vehsPerHour="788" departLane="best" departSpeed="speedLimit"/>
    <flow id="flow_22" type="truck" from="in_top_A1" to="out_right_B2" begin="0" end="900" vehsPerHour="118" departLane="best" departSpeed="speedLimit"/>
    <flow id="flow_23" type="car" from="in_top_A1" to="out_right_B2" begin="900" end="2700" vehsPerHour="275" departLane="best" departSpeed="speedLimit"/>
    <flow id="flow_24" type="truck" from="in_top_A1" to="out_right_B2" begin="900" end="2700" vehsPerHour="39" departLane="best" departSpeed="speedLimit"/>
    <flow id="flow_25" type="car" from="in_top_A1" to="out_right_B2" begin="2700" end="3600" vehsPerHour="709" departLane="best" departSpeed="speedLimit"/>
    <flow id="flow_26" type="truck" from="in_top_A1" to="out_right_B2" begin="2700" end="3600" vehsPerHour="78" departLane="best" departSpeed="speedLimit"/>
    <flow id="flow_27" type="bus" from="in_top_A1" to="out_right_B2" begin="0" end="3600" vehsPerHour="19" departLane="best" departSpeed="speedLimit"/>
    <flow id="flow_28" type="car" from="in_left_C0" to="out_top_A1" begin="0" end="900" vehsPerHour="750" departLane="best" departSpeed="speedLimit"/>
    <flow id="flow_29" type="truck" from="in_left_C0" to="out_top_A1" begin="0" end="900" vehsPerHour="112" departLane="best" departSpeed="speedLimit"/>
    <flow id="flow_30" type="car" from="in_left_C0" to="out_top_A1" begin="900" end="2700" vehsPerHour="262" departLane="best" departSpeed="speedLimit"/>
    <flow id="flow_31" type="truck" from="in_left_C0" to="out_top_A1" begin="900" end="2700" vehsPerHour="37" departLane="best" departSpeed="speedLimit"/>
    <flow id="flow_32" type="car" from="in_left_C0" to="out_top_A1" begin="2700" end="3600" vehsPerHour="675" departLane="best" departSpeed="speedLimit"/>
    <flow id="flow_33" type="truck" from="in_left_C0" to="out_top_A1" begin="2700" end="3600" vehsPerHour="75" departLane="best" departSpeed="speedLimit"/>
    <flow id="flow_34" type="bus" from="in_left_C0" to="out_top_A1" begin="0" end="3600" vehsPerHour="18" departLane="best" departSpeed="speedLimit"/>
    <flow id="flow_35" type="car" from="in_left_A0" to="out_top_A0" begin="0" end="900" vehsPerHour="606" departLane="best" departSpeed="speedLimit"/>
    <flow id="flow_36" type="truck" from="in_left_A0" to="out_top_A0" begin="0" end="900" vehsPerHour="90" departLane="best" departSpeed="speedLimit"/>
    <flow id="flow_37" type="car" from="in_left_A0" to="out_top_A0" begin="900" end="2700" vehsPerHour="212" departLane="best" departSpeed="speedLimit"/>
    <flow id="flow_38" type="truck" from="in_left_A0" to="out_top_A0" begin="900" end="2700" vehsPerHour="30" departLane="best" departSpeed="speedLimit"/>
    <flow id="flow_39" type="car" from="in_left_A0" to="out_top_A0" begin="2700" end="3600" vehsPerHour="545" departLane="best" departSpeed="speedLimit"/>
    <flow id="flow_40" type="truck" from="in_left_A0" to="out_top_A0" begin="2700" end="3600" vehsPerHour="60" departLane="best" departSpeed="speedLimit"/>
    <flow id="flow_41" type="bus" from="in_left_A0" to="out_top_A0" begin="0" end="3600" vehsPerHour="15" departLane="best" departSpeed="speedLimit"/>
    <flow id="flow_42" type="car" from="in_top_A1" to="out_bot_C0" begin="0" end="900" vehsPerHour="658" departLane="best" departSpeed="speedLimit"/>
    <flow id="flow_43" type="truck" from="in_top_A1" to="out_bot_C0" begin="0" end="900" vehsPerHour="98" departLane="best" departSpeed="speedLimit"/>
    <flow id="flow_44" type="car" from="in_top_A1" to="out_bot_C0" begin="900" end="2700" vehsPerHour="230" departLane="best" departSpeed="speedLimit"/>
    <flow id="flow_45" type="truck" from="in_top_A1" to="out_bot_C0" begin="900" end="2700" vehsPerHour="32" departLane="best" departSpeed="speedLimit"/>
    <flow id="flow_46" type="car" from="in_top_A1" to="out_bot_C0" begin="2700" end="3600" vehsPerHour="592" departLane="best" departSpeed="speedLimit"/>
    <flow id="flow_47" type="truck" from="in_top_A1" to="out_bot_C0" begin="2700" end="3600" vehsPerHour="65" departLane="best" departSpeed="speedLimit"/>
    <flow id="flow_48" type="bus" from="in_top_A1" to="out_bot_C0" begin="0" end="3600" vehsPerHour="16" departLane="best" departSpeed="speedLimit"/>
    <flow id="flow_49" type="car" from="in_left_C0" to="out_right_A2" begin="0" end="900" vehsPerHour="606" departLane="best" departSpeed="speedLimit"/>
    <flow id="flow_50" type="truck" from="in_left_C0" to="out_right_A2" begin="0" end="900" vehsPerHour="90" departLane="best" departSpeed="speedLimit"/>
    <flow id="flow_51" type="car" from="in_left_C0" to="out_right_A2" begin="900" end="2700" vehsPerHour="212" departLane="best" departSpeed="speedLimit"/>
    <flow id="flow_52" type="truck" from="in_left_C0" to="out_right_A2" begin="900" end="2700" vehsPerHour="30" departLane="best" departSpeed="speedLimit"/>
    <flow id="flow_53" type="car" from="in_left_C0" to="out_right_A2" begin="2700" end="3600" vehsPerHour="545" departLane="best" departSpeed="speedLimit"/>
    <flow id="flow_54" type="truck" from="in_left_C0" to="out_right_A2" begin="2700" end="3600" vehsPerHour="60" departLane="best" departSpeed="speedLimit"/>
    <flow id="flow_55" type="bus" from="in_left_C0" to="out_right_A2" begin="0" end="3600" vehsPerHour="15" departLane="best" departSpeed="speedLimit"/>
    <flow id="flow_56" type="car" from="in_left_C0" to="out_bot_C0" begin="0" end="900" vehsPerHour="782" departLane="best" departSpeed="speedLimit"/>
    <flow id="flow_57" type="truck" from="in_left_C0" to="out_bot_C0" begin="0" end="900" vehsPerHour="117" departLane="best" departSpeed="speedLimit"/>
    <flow id="flow_58" type="car" from="in_left_C0" to="out_bot_C0" begin="900" end="2700" vehsPerHour="273" departLane="best" departSpeed="speedLimit"/>
    <flow id="flow_59" type="truck" from="in_left_C0" to="out_bot_C0" begin="900" end="2700" vehsPerHour="39" departLane="best" departSpeed="speedLimit"/>
    <flow id="flow_60" type="car" from="in_left_C0" to="out_bot_C0" begin="2700" end="3600" vehsPerHour="703" departLane="best" departSpeed="speedLimit"/>
    <flow id="flow_61" type="truck" from="in_left_C0" to="out_bot_C0" begin="2700" end="3600" vehsPerHour="78" departLane="best" departSpeed="speedLimit"/>
    <flow id="flow_62" type="bus" from="in_left_C0" to="out_bot_C0" begin="0" end="3600" vehsPerHour="19" departLane="best" departSpeed="speedLimit"/>
    <flow id="flow_63" type="car" from="in_bot_C0" to="out_left_B0" begin="0" end="900" vehsPerHour="750" departLane="best" departSpeed="speedLimit"/>
    <flow id="flow_64" type="truck" from="in_bot_C0" to="out_left_B0" begin="0" end="900" vehsPerHour="112" departLane="best" departSpeed="speedLimit"/>
    <flow id="flow_65" type="car" from="in_bot_C0" to="out_left_B0" begin="900" end="2700" vehsPerHour="262" departLane="best" departSpeed="speedLimit"/>
    <flow id="flow_66" type="truck" from="in_bot_C0" to="out_left_B0" begin="900" end="2700" vehsPerHour="37" departLane="best" departSpeed="speedLimit"/>
    <flow id="flow_67" type="car" from="in_bot_C0" to="out_left_B0" begin="2700" end="3600" vehsPerHour="675" departLane="best" departSpeed="speedLimit"/>
    <flow id="flow_68" type="truck" from="in_bot_C0" to="out_left_B0" begin="2700" end="3600" vehsPerHour="75" departLane="best" departSpeed="speedLimit"/>
    <flow id="flow_69" type="bus" from="in_bot_C0" to="out_left_B0" begin="0" end="3600" vehsPerHour="18" departLane="best" departSpeed="speedLimit"/>
    <flow id="flow_70" type="car" from="in_bot_C1" to="out_top_A0" begin="0" end="900" vehsPerHour="794" departLane="best" departSpeed="speedLimit"/>
    <flow id="flow_71" type="truck" from="in_bot_C1" to="out_top_A0" begin="0" end="900" vehsPerHour="119" departLane="best" departSpeed="speedLimit"/>
    <flow id="flow_72" type="car" from="in_bot_C1" to="out_top_A0" begin="900" end="2700" vehsPerHour="277" departLane="best" departSpeed="speedLimit"/>
    <flow id="flow_73" type="truck" from="in_bot_C1" to="out_top_A0" begin="900" end="2700" vehsPerHour="39" departLane="best" departSpeed="speedLimit"/>
    <flow id="flow_74" type="car" from="in_bot_C1" to="out_top_A0" begin="2700" end="3600" vehsPerHour="714" departLane="best" departSpeed="speedLimit"/>
    <flow id="flow_75" type="truck" from="in_bot_C1" to="out_top_A0" begin="2700" end="3600" vehsPerHour="79" departLane="best" departSpeed="speedLimit"/>
    <flow id="flow_76" type="bus" from="in_bot_C1" to="out_top_A0" begin="0" end="3600" vehsPerHour="19" departLane="best" departSpeed="speedLimit"/>
    <flow id="flow_77" type="car" from="in_top_A2" to="out_right_C2" begin="0" end="900" vehsPerHour="708" departLane="best" departSpeed="speedLimit"/>
    <flow id="flow_78" type="truck" from="in_top_A2" to="out_right_C2" begin="0" end="900" vehsPerHour="106" departLane="best" departSpeed="speedLimit"/>
    <flow id="flow_79" type="car" from="in_top_A2" to="out_right_C2" begin="900" end="2700" vehsPerHour="247" departLane="best" departSpeed="speedLimit"/>
    <flow id="flow_80" type="truck" from="in_top_A2" to="out_right_C2" begin="900" end="2700" vehsPerHour="35" departLane="best" departSpeed="speedLimit"/>
    <flow id="flow_81" type="car" from="in_top_A2" to="out_right_C2" begin="2700" end="3600" vehsPerHour="637" departLane="best" departSpeed="speedLimit"/>
    <flow id="flow_82" type="truck" from="in_top_A2" to="out_right_C2" begin="2700" end="3600" vehsPerHour="70" departLane="best" departSpeed="speedLimit"/>
    <flow id="flow_83" type="bus" from="in_top_A2" to="out_right_C2" begin="0" end="3600" vehsPerHour="17" departLane="best" departSpeed="speedLimit"/>
    <flow id="flow_84" type="car" from="in_top_A2" to="out_bot_C0" begin="0" end="900" vehsPerHour="794" departLane="best" departSpeed="speedLimit"/>
    <flow id="flow_85" type="truck" from="in_top_A2" to="out_bot_C0" begin="0" end="900" vehsPerHour="119" departLane="best" departSpeed="speedLimit"/>
    <flow id="flow_86" type="car" from="in_top_A2" to="out_bot_C0" begin="900" end="2700" vehsPerHour="277" departLane="best" departSpeed="speedLimit"/>
    <flow id="flow_87" type="truck" from="in_top_A2" to="out_bot_C0" begin="900" end="2700" vehsPerHour="39" departLane="best" departSpeed="speedLimit"/>
    <flow id="flow_88" type="car" from="in_top_A2" to="out_bot_C0" begin="2700" end="3600" vehsPerHour="714" departLane="best" departSpeed="speedLimit"/>
    <flow id="flow_89" type="truck" from="in_top_A2" to="out_bot_C0" begin="2700" end="3600" vehsPerHour="79" departLane="best" departSpeed="speedLimit"/>
    <flow id="flow_90" type="bus" from="in_top_A2" to="out_bot_C0" begin="0" end="3600" vehsPerHour="19" departLane="best" departSpeed="speedLimit"/>
    <flow id="flow_91" type="car" from="in_bot_C2" to="out_top_A1" begin="0" end="900" vehsPerHour="622" departLane="best" departSpeed="speedLimit"/>
    <flow id="flow_92" type="truck" from="in_bot_C2" to="out_top_A1" begin="0" end="900" vehsPerHour="93" departLane="best" departSpeed="speedLimit"/>
    <flow id="flow_93" type="car" from="in_bot_C2" to="out_top_A1" begin="900" end="2700" vehsPerHour="217" departLane="best" departSpeed="speedLimit"/>
    <flow id="flow_94" type="truck" from="in_bot_C2" to="out_top_A1" begin="900" end="2700" vehsPerHour="31" departLane="best" departSpeed="speedLimit"/>
    <flow id="flow_95" type="car" from="in_bot_C2" to="out_top_A1" begin="2700" end="3600" vehsPerHour="559" departLane="best" departSpeed="speedLimit"/>
    <flow id="flow_96" type="truck" from="in_bot_C2" to="out_top_A1" begin="2700" end="3600" vehsPerHour="62" departLane="best" departSpeed="speedLimit"/>
    <flow id="flow_97" type="bus" from="in_bot_C2" to="out_top_A1" begin="0" end="3600" vehsPerHour="15" departLane="best" departSpeed="speedLimit"/>
    <flow id="flow_98" type="car" from="in_left_A0" to="out_top_A1" begin="0" end="900" vehsPerHour="690" departLane="best" departSpeed="speedLimit"/>
    <flow id="flow_99" type="truck" from="in_left_A0" to="out_top_A1" begin="0" end="900" vehsPerHour="103" departLane="best" departSpeed="speedLimit"/>
    <flow id="flow_100" type="car" from="in_left_A0" to="out_top_A1" begin="900" end="2700" vehsPerHour="241" departLane="best" departSpeed="speedLimit"/>
    <flow id="flow_101" type="truck" from="in_left_A0" to="out_top_A1" begin="900" end="2700" vehsPerHour="34" departLane="best" departSpeed="speedLimit"/>
    <flow id="flow_102" type="car" from="in_left_A0" to="out_top_A1" begin="2700" end="3600" vehsPerHour="621" departLane="best" departSpeed="speedLimit"/>
    <flow id="flow_103" type="truck" from="in_left_A0" to="out_top_A1" begin="2700" end="3600" vehsPerHour="69" departLane="best" departSpeed="speedLimit"/>
    <flow id="flow_104" type="bus" from="in_left_A0" to="out_top_A1" begin="0" end="3600" vehsPerHour="17" departLane="best" departSpeed="speedLimit"/>
    <flow id="flow_105" type="car" from="in_bot_C2" to="out_right_A2" begin="0" end="900" vehsPerHour="666" departLane="best" departSpeed="speedLimit"/>
    <flow id="flow_106" type="truck" from="in_bot_C2" to="out_right_A2" begin="0" end="900" vehsPerHour="99" departLane="best" departSpeed="speedLimit"/>
    <flow id="flow_107" type="car" from="in_bot_C2" to="out_right_A2" begin="900" end="2700" vehsPerHour="233" departLane="best" departSpeed="speedLimit"/>
    <flow id="flow_108" type="truck" from="in_bot_C2" to="out_right_A2" begin="900" end="2700" vehsPerHour="33" departLane="best" departSpeed="speedLimit"/>
    <flow id="flow_109" type="car" from="in_bot_C2" to="out_right_A2" begin="2700" end="3600" vehsPerHour="599" departLane="best" departSpeed="speedLimit"/>
    <flow id="flow_110" type="truck" from="in_bot_C2" to="out_right_A2" begin="2700" end="3600" vehsPerHour="66" departLane="best" departSpeed="speedLimit"/>
    <flow id="flow_111" type="bus" from="in_bot_C2" to="out_right_A2" begin="0" end="3600" vehsPerHour="16" departLane="best" departSpeed="speedLimit"/>
    <flow id="flow_112" type="car" from="in_top_A0" to="out_right_C2" begin="0" end="900" vehsPerHour="716" departLane="best" departSpeed="speedLimit"/>
    <flow id="flow_113" type="truck" from="in_top_A0" to="out_right_C2" begin="0" end="900" vehsPerHour="107" departLane="best" departSpeed="speedLimit"/>
    <flow id="flow_114" type="car" from="in_top_A0" to="out_right_C2" begin="900" end="2700" vehsPerHour="250" departLane="best" departSpeed="speedLimit"/>
    <flow id="flow_115" type="truck" from="in_top_A0" to="out_right_C2" begin="900" end="2700" vehsPerHour="35" departLane="best" departSpeed="speedLimit"/>
    <flow id="flow_116" type="car" from="in_top_A0" to="out_right_C2" begin="2700" end="3600" vehsPerHour="644" departLane="best" departSpeed="speedLimit"/>
    <flow id="flow_117" type="truck" from="in_top_A0" to="out_right_C2" begin="2700" end="3600" vehsPerHour="71" departLane="best" departSpeed="speedLimit"/>
    <flow id="flow_118" type="bus" from="in_top_A0" to="out_right_C2" begin="0" end="3600" vehsPerHour="17" departLane="best" departSpeed="speedLimit"/>
    <flow id="flow_119" type="car" from="in_left_C0" to="out_top_A1" begin="0" end="900" vehsPerHour="696" departLane="best" departSpeed="speedLimit"/>
    <flow id="flow_120" type="truck" from="in_left_C0" to="out_top_A1" begin="0" end="900" vehsPerHour="104" departLane="best" departSpeed="speedLimit"/>
    <flow id="flow_121" type="car" from="in_left_C0" to="out_top_A1" begin="900" end="2700" vehsPerHour="243" departLane="best" departSpeed="speedLimit"/>
    <flow id="flow_122" type="truck" from="in_left_C0" to="out_top_A1" begin="900" end="2700" vehsPerHour="34" departLane="best" departSpeed="speedLimit"/>
    <flow id="flow_123" type="car" from="in_left_C0" to="out_top_A1" begin="2700" end="3600" vehsPerHour="626" departLane="best" departSpeed="speedLimit"/>
    <flow id="flow_124" type="truck" from="in_left_C0" to="out_top_A1" begin="2700" end="3600" vehsPerHour="69" departLane="best" departSpeed="speedLimit"/>
    <flow id="flow_125" type="bus" from="in_left_C0" to="out_top_A1" begin="0" end="3600" vehsPerHour="17" departLane="best" departSpeed="speedLimit"/>
    <flow id="flow_126" type="car" from="in_top_A1" to="out_left_C0" begin="0" end="900" vehsPerHour="674" departLane="best" departSpeed="speedLimit"/>
    <flow id="flow_127" type="truck" from="in_top_A1" to="out_left_C0" begin="0" end="900" vehsPerHour="101" departLane="best" departSpeed="speedLimit"/>
    <flow id="flow_128" type="car" from="in_top_A1" to="out_left_C0" begin="900" end="2700" vehsPerHour="235" departLane="best" departSpeed="speedLimit"/>
    <flow id="flow_129" type="truck" from="in_top_A1" to="out_left_C0" begin="900" end="2700" vehsPerHour="33" departLane="best" departSpeed="speedLimit"/>
    <flow id="flow_130" type="car" from="in_top_A1" to="out_left_C0" begin="2700" end="3600" vehsPerHour="606" departLane="best" departSpeed="speedLimit"/>
    <flow id="flow_131" type="truck" from="in_top_A1" to="out_left_C0" begin="2700" end="3600" vehsPerHour="67" departLane="best" departSpeed="speedLimit"/>
    <flow id="flow_132" type="bus" from="in_top_A1" to="out_left_C0" begin="0" end="3600" vehsPerHour="16" departLane="best" departSpeed="speedLimit"/>
    <flow id="flow_133" type="car" from="in_bot_C2" to="out_right_A2" begin="0" end="900" vehsPerHour="648" departLane="best" departSpeed="speedLimit"/>
    <flow id="flow_134" type="truck" from="in_bot_C2" to="out_right_A2" begin="0" end="900" vehsPerHour="97" departLane="best" departSpeed="speedLimit"/>
    <flow id="flow_135" type="car" from="in_bot_C2" to="out_right_A2" begin="900" end="2700" vehsPerHour="226" departLane="best" departSpeed="speedLimit"/>
    <flow id="flow_136" type="truck" from="in_bot_C2" to="out_right_A2" begin="900" end="2700" vehsPerHour="32" departLane="best" departSpeed="speedLimit"/>
    <flow id="flow_137" type="car" from="in_bot_C2" to="out_right_A2" begin="2700" end="3600" vehsPerHour="583" departLane="best" departSpeed="speedLimit"/>
    <flow id="flow_138" type="truck" from="in_bot_C2" to="out_right_A2" begin="2700" end="3600" vehsPerHour="64" departLane="best" departSpeed="speedLimit"/>
    <flow id="flow_139" type="bus" from="in_bot_C2" to="out_right_A2" begin="0" end="3600" vehsPerHour="16" departLane="best" departSpeed="speedLimit"/>
    <flow id="flow_140" type="car" from="in_right_C2" to="out_top_A1" begin="0" end="900" vehsPerHour="610" departLane="best" departSpeed="speedLimit"/>
    <flow id="flow_141" type="truck" from="in_right_C2" to="out_top_A1" begin="0" end="900" vehsPerHour="91" departLane="best" departSpeed="speedLimit"/>
    <flow id="flow_142" type="car" from="in_right_C2" to="out_top_A1" begin="900" end="2700" vehsPerHour="213" departLane="best" departSpeed="speedLimit"/>
    <flow id="flow_143" type="truck" from="in_right_C2" to="out_top_A1" begin="900" end="2700" vehsPerHour="30" departLane="best" departSpeed="speedLimit"/>
    <flow id="flow_144" type="car" from="in_right_C2" to="out_top_A1" begin="2700" end="3600" vehsPerHour="549" departLane="best" departSpeed="speedLimit"/>
    <flow id="flow_145" type="truck" from="in_right_C2" to="out_top_A1" begin="2700" end="3600" vehsPerHour="61" departLane="best" departSpeed="speedLimit"/>
    <flow id="flow_146" type="bus" from="in_right_C2" to="out_top_A1" begin="0" end="3600" vehsPerHour="15" departLane="best" departSpeed="speedLimit"/>
    <flow id="flow_147" type="car" from="in_right_B2" to="out_bot_C0" begin="0" end="900" vehsPerHour="796" departLane="best" departSpeed="speedLimit"/>
    <flow id="flow_148" type="truck" from="in_right_B2" to="out_bot_C0" begin="0" end="900" vehsPerHour="119" departLane="best" departSpeed="speedLimit"/>
    <flow id="flow_149" type="car" from="in_right_B2" to="out_bot_C0" begin="900" end="2700" vehsPerHour="278" departLane="best" departSpeed="speedLimit"/>
    <flow id="flow_150" type="truck" from="in_right_B2" to="out_bot_C0" begin="900" end="2700" vehsPerHour="39" departLane="best" departSpeed="speedLimit"/>
    <flow id="flow_151" type="car" from="in_right_B2" to="out_bot_C0" begin="2700" end="3600" vehsPerHour="716" departLane="best" departSpeed="speedLimit"/>
    <flow id="flow_152" type="truck" from="in_right_B2" to="out_bot_C0" begin="2700" end="3600" vehsPerHour="79" departLane="best" departSpeed="speedLimit"/>
    <flow id="flow_153" type="bus" from="in_right_B2" to="out_bot_C0" begin="0" end="3600" vehsPerHour="19" departLane="best" departSpeed="speedLimit"/>
    <flow id="flow_154" type="car" from="in_bot_C1" to="out_top_A1" begin="0" end="900" vehsPerHour="658" departLane="best" departSpeed="speedLimit"/>
    <flow id="flow_155" type="truck" from="in_bot_C1" to="out_top_A1" begin="0" end="900" vehsPerHour="98" departLane="best" departSpeed="speedLimit"/>
    <flow id="flow_156" type="car" from="in_bot_C1" to="out_top_A1" begin="900" end="2700" vehsPerHour="230" departLane="best" departSpeed="speedLimit"/>
    <flow id="flow_157" type="truck" from="in_bot_C1" to="out_top_A1" begin="900" end="2700" vehsPerHour="32" departLane="best" departSpeed="speedLimit"/>
    <flow id="flow_158" type="car" from="in_bot_C1" to="out_top_A1" begin="2700" end="3600" vehsPerHour="592" departLane="best" departSpeed="speedLimit"/>
    <flow id="flow_159" type="truck" from="in_bot_C1" to="out_top_A1" begin="2700" end="3600" vehsPerHour="65" departLane="best" departSpeed="speedLimit"/>
    <flow id="flow_160" type="bus" from="in_bot_C1" to="out_top_A1" begin="0" end="3600" vehsPerHour="16" departLane="best" departSpeed="speedLimit"/>
    <flow id="flow_161" type="car" from="in_top_A1" to="out_left_A0" begin="0" end="900" vehsPerHour="670" departLane="best" departSpeed="speedLimit"/>
    <flow id="flow_162" type="truck" from="in_top_A1" to="out_left_A0" begin="0" end="900" vehsPerHour="100" departLane="best" departSpeed="speedLimit"/>
    <flow id="flow_163" type="car" from="in_top_A1" to="out_left_A0" begin="900" end="2700" vehsPerHour="234" departLane="best" departSpeed="speedLimit"/>
    <flow id="flow_164" type="truck" from="in_top_A1" to="out_left_A0" begin="900" end="2700" vehsPerHour="33" departLane="best" departSpeed="speedLimit"/>
    <flow id="flow_165" type="car" from="in_top_A1" to="out_left_A0" begin="2700" end="3600" vehsPerHour="603" departLane="best" departSpeed="speedLimit"/>
    <flow id="flow_166" type="truck" from="in_top_A1" to="out_left_A0" begin="2700" end="3600" vehsPerHour="67" departLane="best" departSpeed="speedLimit"/>
    <flow id="flow_167" type="bus" from="in_top_A1" to="out_left_A0" begin="0" end="3600" vehsPerHour="16" departLane="best" departSpeed="speedLimit"/>
    <flow id="flow_168" type="car" from="in_left_B0" to="out_right_B2" begin="0" end="900" vehsPerHour="692" departLane="best" departSpeed="speedLimit"/>
    <flow id="flow_169" type="truck" from="in_left_B0" to="out_right_B2" begin="0" end="900" vehsPerHour="103" departLane="best" departSpeed="speedLimit"/>
    <flow id="flow_170" type="car" from="in_left_B0" to="out_right_B2" begin="900" end="2700" vehsPerHour="242" departLane="best" departSpeed="speedLimit"/>
    <flow id="flow_171" type="truck" from="in_left_B0" to="out_right_B2" begin="900" end="2700" vehsPerHour="34" departLane="best" departSpeed="speedLimit"/>
    <flow id="flow_172" type="car" from="in_left_B0" to="out_right_B2" begin="2700" end="3600" vehsPerHour="622" departLane="best" departSpeed="speedLimit"/>
    <flow id="flow_173" type="truck" from="in_left_B0" to="out_right_B2" begin="2700" end="3600" vehsPerHour="69" departLane="best" departSpeed="speedLimit"/>
    <flow id="flow_174" type="bus" from="in_left_B0" to="out_right_B2" begin="0" end="3600" vehsPerHour="17" departLane="best" departSpeed="speedLimit"/>
    <flow id="flow_175" type="car" from="in_top_A2" to="out_bot_C2" begin="0" end="900" vehsPerHour="690" departLane="best" departSpeed="speedLimit"/>
    <flow id="flow_176" type="truck" from="in_top_A2" to="out_bot_C2" begin="0" end="900" vehsPerHour="103" departLane="best" departSpeed="speedLimit"/>
    <flow id="flow_177" type="car" from="in_top_A2" to="out_bot_C2" begin="900" end="2700" vehsPerHour="241" departLane="best" departSpeed="speedLimit"/>
    <flow id="flow_178" type="truck" from="in_top_A2" to="out_bot_C2" begin="900" end="2700" vehsPerHour="34" departLane="best" departSpeed="speedLimit"/>
    <flow id="flow_179" type="car" from="in_top_A2" to="out_bot_C2" begin="2700" end="3600" vehsPerHour="621" departLane="best" departSpeed="speedLimit"/>
    <flow id="flow_180" type="truck" from="in_top_A2" to="out_bot_C2" begin="2700" end="3600" vehsPerHour="69" departLane="best" departSpeed="speedLimit"/>
    <flow id="flow_181" type="bus" from="in_top_A2" to="out_bot_C2" begin="0" end="3600" vehsPerHour="17" departLane="best" departSpeed="speedLimit"/>
    <flow id="flow_182" type="car" from="in_bot_C0" to="out_right_B2" begin="0" end="900" vehsPerHour="668" departLane="best" departSpeed="speedLimit"/>
    <flow id="flow_183" type="truck" from="in_bot_C0" to="out_right_B2" begin="0" end="900" vehsPerHour="100" departLane="best" departSpeed="speedLimit"/>
    <flow id="flow_184" type="car" from="in_bot_C0" to="out_right_B2" begin="900" end="2700" vehsPerHour="233" departLane="best" departSpeed="speedLimit"/>
    <flow id="flow_185" type="truck" from="in_bot_C0" to="out_right_B2" begin="900" end="2700" vehsPerHour="33" departLane="best" departSpeed="speedLimit"/>
    <flow id="flow_186" type="car" from="in_bot_C0" to="out_right_B2" begin="2700" end="3600" vehsPerHour="601" departLane="best" departSpeed="speedLimit"/>
    <flow id="flow_187" type="truck" from="in_bot_C0" to="out_right_B2" begin="2700" end="3600" vehsPerHour="66" departLane="best" departSpeed="speedLimit"/>
    <flow id="flow_188" type="bus" from="in_bot_C0" to="out_right_B2" begin="0" end="3600" vehsPerHour="16" departLane="best" departSpeed="speedLimit"/>
    <flow id="flow_189" type="car" from="in_right_B2" to="out_top_A1" begin="0" end="900" vehsPerHour="754" departLane="best" departSpeed="speedLimit"/>
    <flow id="flow_190" type="truck" from="in_right_B2" to="out_top_A1" begin="0" end="900" vehsPerHour="113" departLane="best" departSpeed="speedLimit"/>
    <flow id="flow_191" type="car" from="in_right_B2" to="out_top_A1" begin="900" end="2700" vehsPerHour="263" departLane="best" departSpeed="speedLimit"/>